/*--------------------------------*- C++ -*----------------------------------*\
  =========                 |
  \\      /  F ield         | OpenFOAM: The Open Source CFD Toolbox
   \\    /   O peration     | Website:  https://openfoam.org
    \\  /    A nd           | Version:  7
     \\/     M anipulation  |
\*---------------------------------------------------------------------------*/
FoamFile
{
    version     2.0;
    format      ascii;
    class       polyBoundaryMesh;
    location    "constant/polyMesh";
    object      boundary;
}
// * * * * * * * * * * * * * * * * * * * * * * * * * * * * * * * * * * * * * //

3
(
    wall
    {
        type            patch;
        physicalType    patch;
        nFaces          34;
        startFace       4444;
    }
    heat
    {
        type            patch;
        physicalType    patch;
        nFaces          34;
        startFace       4478;
    }
    defaultFaces
    {
        type            patch;
        nFaces          6084;
        startFace       4512;
    }
)

// ************************************************************************* //
